* NGSPICE file created from lfsr_axi_top.ext - technology: sky130A

* Black-box entry subcircuit for sky130_fd_sc_hd__diode_2 abstract view
.subckt sky130_fd_sc_hd__diode_2 DIODE VGND VNB VPB VPWR
.ends

* Black-box entry subcircuit for sky130_fd_sc_hd__decap_8 abstract view
.subckt sky130_fd_sc_hd__decap_8 VGND VNB VPB VPWR
.ends

* Black-box entry subcircuit for sky130_fd_sc_hd__tapvpwrvgnd_1 abstract view
.subckt sky130_fd_sc_hd__tapvpwrvgnd_1 VGND VPWR
.ends

* Black-box entry subcircuit for sky130_fd_sc_hd__mux2_1 abstract view
.subckt sky130_fd_sc_hd__mux2_1 A0 A1 S VGND VNB VPB VPWR X
.ends

* Black-box entry subcircuit for sky130_fd_sc_hd__fill_2 abstract view
.subckt sky130_fd_sc_hd__fill_2 VGND VNB VPB VPWR
.ends

* Black-box entry subcircuit for sky130_fd_sc_hd__decap_3 abstract view
.subckt sky130_fd_sc_hd__decap_3 VGND VNB VPB VPWR
.ends

* Black-box entry subcircuit for sky130_fd_sc_hd__o32a_2 abstract view
.subckt sky130_fd_sc_hd__o32a_2 A1 A2 A3 B1 B2 VGND VNB VPB VPWR X
.ends

* Black-box entry subcircuit for sky130_fd_sc_hd__o211a_2 abstract view
.subckt sky130_fd_sc_hd__o211a_2 A1 A2 B1 C1 VGND VNB VPB VPWR X
.ends

* Black-box entry subcircuit for sky130_fd_sc_hd__dfrtp_4 abstract view
.subckt sky130_fd_sc_hd__dfrtp_4 CLK D RESET_B VGND VNB VPB VPWR Q
.ends

* Black-box entry subcircuit for sky130_fd_sc_hd__decap_4 abstract view
.subckt sky130_fd_sc_hd__decap_4 VGND VNB VPB VPWR
.ends

* Black-box entry subcircuit for sky130_fd_sc_hd__fill_1 abstract view
.subckt sky130_fd_sc_hd__fill_1 VGND VNB VPB VPWR
.ends

* Black-box entry subcircuit for sky130_fd_sc_hd__decap_6 abstract view
.subckt sky130_fd_sc_hd__decap_6 VGND VNB VPB VPWR
.ends

* Black-box entry subcircuit for sky130_fd_sc_hd__buf_4 abstract view
.subckt sky130_fd_sc_hd__buf_4 A VGND VNB VPB VPWR X
.ends

* Black-box entry subcircuit for sky130_fd_sc_hd__lpflow_clkbufkapwr_1 abstract view
.subckt sky130_fd_sc_hd__lpflow_clkbufkapwr_1 A KAPWR VGND VNB VPB VPWR X
.ends

* Black-box entry subcircuit for sky130_fd_sc_hd__a221o_2 abstract view
.subckt sky130_fd_sc_hd__a221o_2 A1 A2 B1 B2 C1 VGND VNB VPB VPWR X
.ends

* Black-box entry subcircuit for sky130_fd_sc_hd__dfstp_2 abstract view
.subckt sky130_fd_sc_hd__dfstp_2 CLK D SET_B VGND VNB VPB VPWR Q
.ends

* Black-box entry subcircuit for sky130_fd_sc_hd__dfrtp_2 abstract view
.subckt sky130_fd_sc_hd__dfrtp_2 CLK D RESET_B VGND VNB VPB VPWR Q
.ends

* Black-box entry subcircuit for sky130_fd_sc_hd__o21ai_2 abstract view
.subckt sky130_fd_sc_hd__o21ai_2 A1 A2 B1 VGND VNB VPB VPWR Y
.ends

* Black-box entry subcircuit for sky130_fd_sc_hd__lpflow_inputiso0n_1 abstract view
.subckt sky130_fd_sc_hd__lpflow_inputiso0n_1 A SLEEP_B VGND VNB VPB VPWR X
.ends

* Black-box entry subcircuit for sky130_ef_sc_hd__decap_12 abstract view
.subckt sky130_ef_sc_hd__decap_12 VPWR VGND VPB VNB
.ends

* Black-box entry subcircuit for sky130_fd_sc_hd__lpflow_clkinvkapwr_1 abstract view
.subckt sky130_fd_sc_hd__lpflow_clkinvkapwr_1 A KAPWR VGND VNB VPB VPWR Y
.ends

* Black-box entry subcircuit for sky130_fd_sc_hd__o22a_2 abstract view
.subckt sky130_fd_sc_hd__o22a_2 A1 A2 B1 B2 VGND VNB VPB VPWR X
.ends

* Black-box entry subcircuit for sky130_fd_sc_hd__clkinvlp_4 abstract view
.subckt sky130_fd_sc_hd__clkinvlp_4 A VGND VNB VPB VPWR Y
.ends

* Black-box entry subcircuit for sky130_fd_sc_hd__inv_2 abstract view
.subckt sky130_fd_sc_hd__inv_2 A VGND VNB VPB VPWR Y
.ends

* Black-box entry subcircuit for sky130_fd_sc_hd__a22o_2 abstract view
.subckt sky130_fd_sc_hd__a22o_2 A1 A2 B1 B2 VGND VNB VPB VPWR X
.ends

* Black-box entry subcircuit for sky130_fd_sc_hd__dfstp_4 abstract view
.subckt sky130_fd_sc_hd__dfstp_4 CLK D SET_B VGND VNB VPB VPWR Q
.ends

* Black-box entry subcircuit for sky130_fd_sc_hd__clkinv_1 abstract view
.subckt sky130_fd_sc_hd__clkinv_1 A VGND VNB VPB VPWR Y
.ends

* Black-box entry subcircuit for sky130_fd_sc_hd__o21ai_0 abstract view
.subckt sky130_fd_sc_hd__o21ai_0 A1 A2 B1 VGND VNB VPB VPWR Y
.ends

* Black-box entry subcircuit for sky130_fd_sc_hd__clkbuf_4 abstract view
.subckt sky130_fd_sc_hd__clkbuf_4 A VGND VNB VPB VPWR X
.ends

* Black-box entry subcircuit for sky130_fd_sc_hd__nand2_2 abstract view
.subckt sky130_fd_sc_hd__nand2_2 A B VGND VNB VPB VPWR Y
.ends

* Black-box entry subcircuit for sky130_fd_sc_hd__or2_0 abstract view
.subckt sky130_fd_sc_hd__or2_0 A B VGND VNB VPB VPWR X
.ends

* Black-box entry subcircuit for sky130_fd_sc_hd__lpflow_clkbufkapwr_4 abstract view
.subckt sky130_fd_sc_hd__lpflow_clkbufkapwr_4 A KAPWR VGND VNB VPB VPWR X
.ends

* Black-box entry subcircuit for sky130_fd_sc_hd__clkbuf_16 abstract view
.subckt sky130_fd_sc_hd__clkbuf_16 A VGND VNB VPB VPWR X
.ends

* Black-box entry subcircuit for sky130_fd_sc_hd__lpflow_isobufsrc_1 abstract view
.subckt sky130_fd_sc_hd__lpflow_isobufsrc_1 A SLEEP VGND VNB VPB VPWR X
.ends

* Black-box entry subcircuit for sky130_fd_sc_hd__o21a_2 abstract view
.subckt sky130_fd_sc_hd__o21a_2 A1 A2 B1 VGND VNB VPB VPWR X
.ends

* Black-box entry subcircuit for sky130_fd_sc_hd__or4b_4 abstract view
.subckt sky130_fd_sc_hd__or4b_4 A B C D_N VGND VNB VPB VPWR X
.ends

* Black-box entry subcircuit for sky130_fd_sc_hd__o221a_2 abstract view
.subckt sky130_fd_sc_hd__o221a_2 A1 A2 B1 B2 C1 VGND VNB VPB VPWR X
.ends

* Black-box entry subcircuit for sky130_fd_sc_hd__o21ba_2 abstract view
.subckt sky130_fd_sc_hd__o21ba_2 A1 A2 B1_N VGND VNB VPB VPWR X
.ends

* Black-box entry subcircuit for sky130_fd_sc_hd__lpflow_clkbufkapwr_8 abstract view
.subckt sky130_fd_sc_hd__lpflow_clkbufkapwr_8 A KAPWR VGND VNB VPB VPWR X
.ends

* Black-box entry subcircuit for sky130_fd_sc_hd__buf_2 abstract view
.subckt sky130_fd_sc_hd__buf_2 A VGND VNB VPB VPWR X
.ends

* Black-box entry subcircuit for sky130_fd_sc_hd__or3b_2 abstract view
.subckt sky130_fd_sc_hd__or3b_2 A B C_N VGND VNB VPB VPWR X
.ends

* Black-box entry subcircuit for sky130_fd_sc_hd__buf_1 abstract view
.subckt sky130_fd_sc_hd__buf_1 A VGND VNB VPB VPWR X
.ends

* Black-box entry subcircuit for sky130_fd_sc_hd__a211o_2 abstract view
.subckt sky130_fd_sc_hd__a211o_2 A1 A2 B1 C1 VGND VNB VPB VPWR X
.ends

* Black-box entry subcircuit for sky130_fd_sc_hd__or4_2 abstract view
.subckt sky130_fd_sc_hd__or4_2 A B C D VGND VNB VPB VPWR X
.ends

* Black-box entry subcircuit for sky130_fd_sc_hd__nand4_4 abstract view
.subckt sky130_fd_sc_hd__nand4_4 A B C D VGND VNB VPB VPWR Y
.ends

* Black-box entry subcircuit for sky130_fd_sc_hd__and4b_2 abstract view
.subckt sky130_fd_sc_hd__and4b_2 A_N B C D VGND VNB VPB VPWR X
.ends

* Black-box entry subcircuit for sky130_fd_sc_hd__a22oi_4 abstract view
.subckt sky130_fd_sc_hd__a22oi_4 A1 A2 B1 B2 VGND VNB VPB VPWR Y
.ends

* Black-box entry subcircuit for sky130_fd_sc_hd__a2111oi_2 abstract view
.subckt sky130_fd_sc_hd__a2111oi_2 A1 A2 B1 C1 D1 VGND VNB VPB VPWR Y
.ends

* Black-box entry subcircuit for sky130_fd_sc_hd__and4_2 abstract view
.subckt sky130_fd_sc_hd__and4_2 A B C D VGND VNB VPB VPWR X
.ends

* Black-box entry subcircuit for sky130_fd_sc_hd__nand2_4 abstract view
.subckt sky130_fd_sc_hd__nand2_4 A B VGND VNB VPB VPWR Y
.ends

* Black-box entry subcircuit for sky130_fd_sc_hd__nor2_2 abstract view
.subckt sky130_fd_sc_hd__nor2_2 A B VGND VNB VPB VPWR Y
.ends

* Black-box entry subcircuit for sky130_fd_sc_hd__a21o_2 abstract view
.subckt sky130_fd_sc_hd__a21o_2 A1 A2 B1 VGND VNB VPB VPWR X
.ends

* Black-box entry subcircuit for sky130_fd_sc_hd__nor2_4 abstract view
.subckt sky130_fd_sc_hd__nor2_4 A B VGND VNB VPB VPWR Y
.ends

* Black-box entry subcircuit for sky130_fd_sc_hd__a21boi_2 abstract view
.subckt sky130_fd_sc_hd__a21boi_2 A1 A2 B1_N VGND VNB VPB VPWR Y
.ends

* Black-box entry subcircuit for sky130_fd_sc_hd__lpflow_isobufsrc_4 abstract view
.subckt sky130_fd_sc_hd__lpflow_isobufsrc_4 A SLEEP VGND VNB VPB VPWR X
.ends

* Black-box entry subcircuit for sky130_fd_sc_hd__or3_2 abstract view
.subckt sky130_fd_sc_hd__or3_2 A B C VGND VNB VPB VPWR X
.ends

* Black-box entry subcircuit for sky130_fd_sc_hd__or3b_4 abstract view
.subckt sky130_fd_sc_hd__or3b_4 A B C_N VGND VNB VPB VPWR X
.ends

* Black-box entry subcircuit for sky130_fd_sc_hd__and3b_2 abstract view
.subckt sky130_fd_sc_hd__and3b_2 A_N B C VGND VNB VPB VPWR X
.ends

* Black-box entry subcircuit for sky130_fd_sc_hd__o211ai_4 abstract view
.subckt sky130_fd_sc_hd__o211ai_4 A1 A2 B1 C1 VGND VNB VPB VPWR Y
.ends

* Black-box entry subcircuit for sky130_fd_sc_hd__or3_4 abstract view
.subckt sky130_fd_sc_hd__or3_4 A B C VGND VNB VPB VPWR X
.ends

* Black-box entry subcircuit for sky130_fd_sc_hd__and3_2 abstract view
.subckt sky130_fd_sc_hd__and3_2 A B C VGND VNB VPB VPWR X
.ends

* Black-box entry subcircuit for sky130_fd_sc_hd__conb_1 abstract view
.subckt sky130_fd_sc_hd__conb_1 VGND VNB VPB VPWR HI LO
.ends

* Black-box entry subcircuit for sky130_fd_sc_hd__mux2_2 abstract view
.subckt sky130_fd_sc_hd__mux2_2 A0 A1 S VGND VNB VPB VPWR X
.ends

* Black-box entry subcircuit for sky130_fd_sc_hd__a211oi_4 abstract view
.subckt sky130_fd_sc_hd__a211oi_4 A1 A2 B1 C1 VGND VNB VPB VPWR Y
.ends

.subckt lfsr_axi_top VGND VPWR clk rst_n s_axi_araddr[0] s_axi_araddr[1] s_axi_araddr[2]
+ s_axi_araddr[3] s_axi_arready s_axi_arvalid s_axi_awaddr[0] s_axi_awaddr[1] s_axi_awaddr[2]
+ s_axi_awaddr[3] s_axi_awready s_axi_awvalid s_axi_bready s_axi_bresp[0] s_axi_bresp[1]
+ s_axi_bvalid s_axi_rdata[0] s_axi_rdata[1] s_axi_rdata[2] s_axi_rdata[3] s_axi_rdata[4]
+ s_axi_rdata[5] s_axi_rdata[6] s_axi_rdata[7] s_axi_rready s_axi_rvalid s_axi_wdata[0]
+ s_axi_wdata[1] s_axi_wdata[2] s_axi_wdata[3] s_axi_wdata[4] s_axi_wdata[5] s_axi_wdata[6]
+ s_axi_wdata[7] s_axi_wready s_axi_wvalid
XANTENNA__203__B u_axi_slave.lfsr_data\[2\] VGND VGND VPWR VPWR sky130_fd_sc_hd__diode_2
XFILLER_0_4_160 VGND VGND VPWR VPWR sky130_fd_sc_hd__decap_8
XTAP_TAPCELL_ROW_15_106 VGND VPWR sky130_fd_sc_hd__tapvpwrvgnd_1
X_294_ u_axi_slave.taps_reg\[4\] net18 _142_ VGND VGND VPWR VPWR _147_ sky130_fd_sc_hd__mux2_1
XFILLER_0_1_152 VGND VGND VPWR VPWR sky130_fd_sc_hd__fill_2
XANTENNA__256__B1 _103_ VGND VGND VPWR VPWR sky130_fd_sc_hd__diode_2
XTAP_TAPCELL_ROW_20_120 VGND VPWR sky130_fd_sc_hd__tapvpwrvgnd_1
XANTENNA__340__RESET_B net1 VGND VGND VPWR VPWR sky130_fd_sc_hd__diode_2
XFILLER_0_18_29 VGND VGND VPWR VPWR sky130_fd_sc_hd__decap_3
XFILLER_0_18_18 VGND VGND VPWR VPWR sky130_fd_sc_hd__decap_3
XANTENNA__247__B1 _112_ VGND VGND VPWR VPWR sky130_fd_sc_hd__diode_2
X_277_ _134_ _135_ _136_ _103_ net32 VGND VGND VPWR VPWR _033_ sky130_fd_sc_hd__o32a_2
XANTENNA_fanout38_A net1 VGND VGND VPWR VPWR sky130_fd_sc_hd__diode_2
X_200_ _071_ _072_ _073_ _074_ VGND VGND VPWR VPWR _075_ sky130_fd_sc_hd__o211a_2
XANTENNA__209__A u_axi_slave.lfsr_data\[5\] VGND VGND VPWR VPWR sky130_fd_sc_hd__diode_2
X_329_ clknet_2_0__leaf_clk _027_ net36 VGND VGND VPWR VPWR net26 sky130_fd_sc_hd__dfrtp_4
XFILLER_0_10_85 VGND VGND VPWR VPWR sky130_fd_sc_hd__fill_2
XFILLER_0_0_29 VGND VGND VPWR VPWR sky130_fd_sc_hd__fill_2
XFILLER_0_19_83 VGND VGND VPWR VPWR sky130_fd_sc_hd__decap_4
XFILLER_0_19_61 VGND VGND VPWR VPWR sky130_fd_sc_hd__fill_2
XPHY_EDGE_ROW_8_Left_36 VGND VGND VPWR VPWR sky130_fd_sc_hd__decap_3
XFILLER_0_21_51 VGND VGND VPWR VPWR sky130_fd_sc_hd__fill_2
XANTENNA__337__SET_B net40 VGND VGND VPWR VPWR sky130_fd_sc_hd__diode_2
XFILLER_0_26_29 VGND VGND VPWR VPWR sky130_fd_sc_hd__fill_1
XFILLER_0_1_50 VGND VGND VPWR VPWR sky130_fd_sc_hd__decap_6
XANTENNA_input18_A s_axi_wdata[4] VGND VGND VPWR VPWR sky130_fd_sc_hd__diode_2
XFILLER_0_16_40 VGND VGND VPWR VPWR sky130_fd_sc_hd__fill_2
XANTENNA__320__SET_B net40 VGND VGND VPWR VPWR sky130_fd_sc_hd__diode_2
XANTENNA__188__S _058_ VGND VGND VPWR VPWR sky130_fd_sc_hd__diode_2
XTAP_TAPCELL_ROW_18_115 VGND VPWR sky130_fd_sc_hd__tapvpwrvgnd_1
Xoutput31 net31 VGND VGND VPWR VPWR s_axi_rdata[5] sky130_fd_sc_hd__buf_4
XANTENNA__292__A1 net17 VGND VGND VPWR VPWR sky130_fd_sc_hd__diode_2
XFILLER_0_27_72 VGND VGND VPWR VPWR sky130_fd_sc_hd__fill_2
XANTENNA__203__C u_axi_slave.taps_reg\[2\] VGND VGND VPWR VPWR sky130_fd_sc_hd__diode_2
XPHY_EDGE_ROW_21_Left_49 VGND VGND VPWR VPWR sky130_fd_sc_hd__decap_3
XFILLER_0_2_109 VGND VGND VPWR VPWR sky130_fd_sc_hd__decap_8
X_293_ _146_ _293_/KAPWR VGND VGND VPWR VPWR _039_ sky130_fd_sc_hd__lpflow_clkbufkapwr_1
XFILLER_0_13_96 VGND VGND VPWR VPWR sky130_fd_sc_hd__fill_2
XFILLER_0_13_41 VGND VGND VPWR VPWR sky130_fd_sc_hd__fill_2
XFILLER_0_13_30 VGND VGND VPWR VPWR sky130_fd_sc_hd__fill_2
XANTENNA__265__A1 net29 VGND VGND VPWR VPWR sky130_fd_sc_hd__diode_2
XANTENNA__256__B2 net27 VGND VGND VPWR VPWR sky130_fd_sc_hd__diode_2
XTAP_TAPCELL_ROW_20_121 VGND VPWR sky130_fd_sc_hd__tapvpwrvgnd_1
XANTENNA__214__B _087_ VGND VGND VPWR VPWR sky130_fd_sc_hd__diode_2
XANTENNA__247__A1 u_axi_slave.lfsr_data\[0\] VGND VGND VPWR VPWR sky130_fd_sc_hd__diode_2
XANTENNA__247__B2 u_axi_slave.ctrl_reg\[0\] VGND VGND VPWR VPWR sky130_fd_sc_hd__diode_2
X_276_ u_axi_slave.taps_reg\[6\] _107_ _112_ u_axi_slave.ctrl_reg\[6\] _114_ VGND
+ VGND VPWR VPWR _136_ sky130_fd_sc_hd__a221o_2
X_345_ clknet_2_1__leaf_clk _043_ net37 VGND VGND VPWR VPWR u_axi_slave.taps_reg\[7\]
+ sky130_fd_sc_hd__dfstp_2
XANTENNA__257__SLEEP_B _112_ VGND VGND VPWR VPWR sky130_fd_sc_hd__diode_2
XANTENNA__286__S _142_ VGND VGND VPWR VPWR sky130_fd_sc_hd__diode_2
XANTENNA__174__A0 u_axi_slave.ctrl_reg\[0\] VGND VGND VPWR VPWR sky130_fd_sc_hd__diode_2
XPHY_EDGE_ROW_21_Right_21 VGND VGND VPWR VPWR sky130_fd_sc_hd__decap_3
XPHY_EDGE_ROW_12_Right_12 VGND VGND VPWR VPWR sky130_fd_sc_hd__decap_3
XANTENNA__209__B u_axi_slave.lfsr_data\[4\] VGND VGND VPWR VPWR sky130_fd_sc_hd__diode_2
XANTENNA__156__A0 u_axi_slave.seed_reg\[0\] VGND VGND VPWR VPWR sky130_fd_sc_hd__diode_2
X_328_ clknet_2_1__leaf_clk _026_ net37 VGND VGND VPWR VPWR net34 sky130_fd_sc_hd__dfrtp_2
XANTENNA__225__A u_axi_slave.lfsr_data\[2\] VGND VGND VPWR VPWR sky130_fd_sc_hd__diode_2
X_259_ _122_ _116_ _102_ VGND VGND VPWR VPWR _123_ sky130_fd_sc_hd__o21ai_2
XFILLER_0_27_181 VGND VGND VPWR VPWR sky130_fd_sc_hd__decap_8
XPHY_EDGE_ROW_24_Left_52 VGND VGND VPWR VPWR sky130_fd_sc_hd__decap_3
XFILLER_0_24_173 VGND VGND VPWR VPWR sky130_fd_sc_hd__fill_2
XFILLER_0_21_85 VGND VGND VPWR VPWR sky130_fd_sc_hd__fill_2
XFILLER_0_21_74 VGND VGND VPWR VPWR sky130_fd_sc_hd__decap_8
XFILLER_0_21_63 VGND VGND VPWR VPWR sky130_fd_sc_hd__fill_1
XFILLER_0_21_41 VGND VGND VPWR VPWR sky130_fd_sc_hd__decap_4
XANTENNA_output31_A net31 VGND VGND VPWR VPWR sky130_fd_sc_hd__diode_2
XFILLER_0_15_173 VGND VGND VPWR VPWR sky130_fd_sc_hd__decap_4
XFILLER_0_15_151 VGND VGND VPWR VPWR sky130_fd_sc_hd__decap_8
XFILLER_0_1_95 VGND VGND VPWR VPWR sky130_fd_sc_hd__fill_2
XFILLER_0_21_143 VGND VGND VPWR VPWR sky130_fd_sc_hd__fill_2
XFILLER_0_21_110 VGND VGND VPWR VPWR sky130_fd_sc_hd__fill_2
XFILLER_0_16_85 VGND VGND VPWR VPWR sky130_fd_sc_hd__fill_2
XFILLER_0_6_18 VGND VGND VPWR VPWR sky130_fd_sc_hd__fill_2
XFILLER_0_6_29 VGND VGND VPWR VPWR sky130_fd_sc_hd__fill_2
XANTENNA__334__RESET_B net40 VGND VGND VPWR VPWR sky130_fd_sc_hd__diode_2
XANTENNA__294__S _142_ VGND VGND VPWR VPWR sky130_fd_sc_hd__diode_2
XPHY_EDGE_ROW_6_Right_6 VGND VGND VPWR VPWR sky130_fd_sc_hd__decap_3
XANTENNA__233__A u_axi_slave.lfsr_data\[7\] VGND VGND VPWR VPWR sky130_fd_sc_hd__diode_2
Xoutput32 net32 VGND VGND VPWR VPWR s_axi_rdata[6] sky130_fd_sc_hd__buf_4
XANTENNA__283__A2 net6 VGND VGND VPWR VPWR sky130_fd_sc_hd__diode_2
XTAP_TAPCELL_ROW_23_130 VGND VPWR sky130_fd_sc_hd__tapvpwrvgnd_1
XANTENNA__203__D u_axi_slave.taps_reg\[3\] VGND VGND VPWR VPWR sky130_fd_sc_hd__diode_2
XFILLER_0_2_9 VGND VGND VPWR VPWR sky130_fd_sc_hd__fill_2
X_292_ u_axi_slave.taps_reg\[3\] net17 _142_ VGND VGND VPWR VPWR _146_ sky130_fd_sc_hd__mux2_1
XFILLER_0_7_94 VGND VGND VPWR VPWR sky130_fd_sc_hd__fill_2
XANTENNA__265__A2 _103_ VGND VGND VPWR VPWR sky130_fd_sc_hd__diode_2
XFILLER_0_1_165 VGND VGND VPWR VPWR sky130_fd_sc_hd__decap_3
XFILLER_0_1_121 VGND VGND VPWR VPWR sky130_fd_sc_hd__fill_1
XFILLER_0_1_187 VGND VGND VPWR VPWR sky130_fd_sc_hd__decap_3
XANTENNA__247__A2 _111_ VGND VGND VPWR VPWR sky130_fd_sc_hd__diode_2
X_275_ u_axi_slave.lfsr_data\[6\] _111_ VGND VGND VPWR VPWR _135_ sky130_fd_sc_hd__lpflow_inputiso0n_1
XANTENNA__238__A2 _103_ VGND VGND VPWR VPWR sky130_fd_sc_hd__diode_2
X_344_ clknet_2_2__leaf_clk _042_ net38 VGND VGND VPWR VPWR u_axi_slave.taps_reg\[6\]
+ sky130_fd_sc_hd__dfrtp_2
XFILLER_0_24_85 VPWR VGND VPWR VGND sky130_ef_sc_hd__decap_12
XFILLER_0_24_63 VGND VGND VPWR VPWR sky130_fd_sc_hd__fill_2
XFILLER_0_24_41 VGND VGND VPWR VPWR sky130_fd_sc_hd__fill_2
XANTENNA__174__A1 net14 VGND VGND VPWR VPWR sky130_fd_sc_hd__diode_2
XFILLER_0_4_51 VGND VGND VPWR VPWR sky130_fd_sc_hd__fill_2
XANTENNA__225__B _070_ VGND VGND VPWR VPWR sky130_fd_sc_hd__diode_2
XANTENNA__241__A net5 VGND VGND VPWR VPWR sky130_fd_sc_hd__diode_2
XANTENNA__209__C u_axi_slave.lfsr_data\[7\] VGND VGND VPWR VPWR sky130_fd_sc_hd__diode_2
XANTENNA__156__A1 net14 VGND VGND VPWR VPWR sky130_fd_sc_hd__diode_2
X_327_ clknet_2_3__leaf_clk _025_ net40 VGND VGND VPWR VPWR u_axi_slave.lfsr_data\[7\]
+ sky130_fd_sc_hd__dfrtp_2
XFILLER_0_19_149 VGND VGND VPWR VPWR sky130_fd_sc_hd__decap_3
X_258_ u_axi_slave.taps_reg\[2\] _258_/KAPWR VGND VGND VPWR VPWR _122_ sky130_fd_sc_hd__lpflow_clkinvkapwr_1
X_189_ _066_ _189_/KAPWR VGND VGND VPWR VPWR _015_ sky130_fd_sc_hd__lpflow_clkbufkapwr_1
XFILLER_0_10_98 VGND VGND VPWR VPWR sky130_fd_sc_hd__fill_2
XFILLER_0_10_54 VGND VGND VPWR VPWR sky130_fd_sc_hd__fill_2
XFILLER_0_25_108 VGND VGND VPWR VPWR sky130_fd_sc_hd__fill_2
XANTENNA__236__A _102_ VGND VGND VPWR VPWR sky130_fd_sc_hd__diode_2
XFILLER_0_24_141 VGND VGND VPWR VPWR sky130_fd_sc_hd__fill_2
XFILLER_0_21_20 VGND VGND VPWR VPWR sky130_fd_sc_hd__decap_3
XANTENNA_output24_A net24 VGND VGND VPWR VPWR sky130_fd_sc_hd__diode_2
XFILLER_0_12_188 VGND VGND VPWR VPWR sky130_fd_sc_hd__fill_2
XFILLER_0_12_155 VGND VGND VPWR VPWR sky130_fd_sc_hd__decap_3
XANTENNA__286__A0 u_axi_slave.taps_reg\[0\] VGND VGND VPWR VPWR sky130_fd_sc_hd__diode_2
XFILLER_0_12_144 VGND VGND VPWR VPWR sky130_fd_sc_hd__fill_2
XANTENNA__277__B1 _103_ VGND VGND VPWR VPWR sky130_fd_sc_hd__diode_2
Xoutput33 net33 VGND VGND VPWR VPWR s_axi_rdata[7] sky130_fd_sc_hd__buf_4
XANTENNA__233__B _092_ VGND VGND VPWR VPWR sky130_fd_sc_hd__diode_2
XFILLER_0_27_85 VGND VGND VPWR VPWR sky130_fd_sc_hd__fill_2
XANTENNA__259__B1 _102_ VGND VGND VPWR VPWR sky130_fd_sc_hd__diode_2
X_291_ _145_ _291_/KAPWR VGND VGND VPWR VPWR _038_ sky130_fd_sc_hd__lpflow_clkbufkapwr_1
XFILLER_0_4_185 VGND VGND VPWR VPWR sky130_fd_sc_hd__decap_4
XFILLER_0_13_87 VGND VGND VPWR VPWR sky130_fd_sc_hd__decap_3
XFILLER_0_13_65 VGND VGND VPWR VPWR sky130_fd_sc_hd__fill_1
XANTENNA__244__A u_axi_slave.seed_reg\[0\] VGND VGND VPWR VPWR sky130_fd_sc_hd__diode_2
XANTENNA__256__A3 _120_ VGND VGND VPWR VPWR sky130_fd_sc_hd__diode_2
XFILLER_0_1_177 VGND VGND VPWR VPWR sky130_fd_sc_hd__decap_3
XANTENNA__304__D _002_ VGND VGND VPWR VPWR sky130_fd_sc_hd__diode_2
X_343_ clknet_2_3__leaf_clk _041_ net39 VGND VGND VPWR VPWR u_axi_slave.taps_reg\[5\]
+ sky130_fd_sc_hd__dfstp_2
X_274_ u_axi_slave.seed_reg\[6\] _109_ VGND VGND VPWR VPWR _134_ sky130_fd_sc_hd__lpflow_inputiso0n_1
XFILLER_0_24_97 VPWR VGND VPWR VGND sky130_ef_sc_hd__decap_12
XFILLER_0_24_75 VGND VGND VPWR VPWR sky130_fd_sc_hd__decap_3
XFILLER_0_4_85 VPWR VGND VPWR VGND sky130_ef_sc_hd__decap_12
XANTENNA__225__C _087_ VGND VGND VPWR VPWR sky130_fd_sc_hd__diode_2
XANTENNA__209__D u_axi_slave.lfsr_data\[6\] VGND VGND VPWR VPWR sky130_fd_sc_hd__diode_2
X_188_ u_axi_slave.ctrl_reg\[7\] net21 _058_ VGND VGND VPWR VPWR _066_ sky130_fd_sc_hd__mux2_1
X_257_ u_axi_slave.ctrl_reg\[2\] _112_ VGND VGND VPWR VPWR _121_ sky130_fd_sc_hd__lpflow_inputiso0n_1
XANTENNA__151__B net11 VGND VGND VPWR VPWR sky130_fd_sc_hd__diode_2
X_326_ clknet_2_0__leaf_clk _024_ net36 VGND VGND VPWR VPWR u_axi_slave.lfsr_data\[6\]
+ sky130_fd_sc_hd__dfrtp_2
X_309_ clknet_2_1__leaf_clk _007_ net37 VGND VGND VPWR VPWR u_axi_slave.seed_reg\[7\]
+ sky130_fd_sc_hd__dfrtp_2
XFILLER_0_16_109 VGND VGND VPWR VPWR sky130_fd_sc_hd__fill_2
XFILLER_0_24_153 VPWR VGND VPWR VGND sky130_ef_sc_hd__decap_12
XFILLER_0_21_98 VGND VGND VPWR VPWR sky130_fd_sc_hd__fill_2
XFILLER_0_15_164 VGND VGND VPWR VPWR sky130_fd_sc_hd__fill_2
XFILLER_0_21_189 VGND VGND VPWR VPWR sky130_fd_sc_hd__fill_1
XTAP_TAPCELL_ROW_10_90 VGND VPWR sky130_fd_sc_hd__tapvpwrvgnd_1
XANTENNA__286__A1 net14 VGND VGND VPWR VPWR sky130_fd_sc_hd__diode_2
XFILLER_0_8_139 VGND VGND VPWR VPWR sky130_fd_sc_hd__fill_1
Xoutput23 net23 VGND VGND VPWR VPWR s_axi_arready sky130_fd_sc_hd__buf_4
Xoutput34 net34 VGND VGND VPWR VPWR s_axi_rvalid sky130_fd_sc_hd__buf_4
XANTENNA__277__B2 net32 VGND VGND VPWR VPWR sky130_fd_sc_hd__diode_2
XFILLER_0_7_161 VGND VGND VPWR VPWR sky130_fd_sc_hd__decap_6
XFILLER_0_7_183 VGND VGND VPWR VPWR sky130_fd_sc_hd__fill_2
XANTENNA_input16_A s_axi_wdata[2] VGND VGND VPWR VPWR sky130_fd_sc_hd__diode_2
XANTENNA_input8_A s_axi_awaddr[1] VGND VGND VPWR VPWR sky130_fd_sc_hd__diode_2
XFILLER_0_7_30 VGND VGND VPWR VPWR sky130_fd_sc_hd__fill_2
X_290_ u_axi_slave.taps_reg\[2\] net16 _142_ VGND VGND VPWR VPWR _145_ sky130_fd_sc_hd__mux2_1
XFILLER_0_13_55 VGND VGND VPWR VPWR sky130_fd_sc_hd__fill_1
XFILLER_0_1_156 VGND VGND VPWR VPWR sky130_fd_sc_hd__fill_2
XTAP_TAPCELL_ROW_3_70 VGND VPWR sky130_fd_sc_hd__tapvpwrvgnd_1
X_342_ clknet_2_1__leaf_clk _040_ net38 VGND VGND VPWR VPWR u_axi_slave.taps_reg\[4\]
+ sky130_fd_sc_hd__dfstp_2
X_273_ net31 _103_ _132_ _133_ VGND VGND VPWR VPWR _032_ sky130_fd_sc_hd__o22a_2
XFILLER_0_24_21 VGND VGND VPWR VPWR sky130_fd_sc_hd__fill_2
XANTENNA__235__SLEEP_B net6 VGND VGND VPWR VPWR sky130_fd_sc_hd__diode_2
XFILLER_0_4_97 VPWR VGND VPWR VGND sky130_ef_sc_hd__decap_12
XFILLER_0_19_65 VGND VGND VPWR VPWR sky130_fd_sc_hd__decap_4
XFILLER_0_10_23 VGND VGND VPWR VPWR sky130_fd_sc_hd__decap_4
X_256_ _117_ _119_ _120_ _103_ net27 VGND VGND VPWR VPWR _028_ sky130_fd_sc_hd__o32a_2
XANTENNA__151__C net24 VGND VGND VPWR VPWR sky130_fd_sc_hd__diode_2
XTAP_TAPCELL_ROW_0_60 VGND VPWR sky130_fd_sc_hd__tapvpwrvgnd_1
X_325_ clknet_2_2__leaf_clk _023_ net39 VGND VGND VPWR VPWR u_axi_slave.lfsr_data\[5\]
+ sky130_fd_sc_hd__dfrtp_2
X_187_ _065_ _187_/KAPWR VGND VGND VPWR VPWR _014_ sky130_fd_sc_hd__lpflow_clkbufkapwr_1
Xclkload0 clknet_2_0__leaf_clk VGND VGND VPWR VPWR clkload0/Y sky130_fd_sc_hd__clkinvlp_4
XFILLER_0_24_165 VGND VGND VPWR VPWR sky130_fd_sc_hd__decap_8
XFILLER_0_21_66 VGND VGND VPWR VPWR sky130_fd_sc_hd__decap_6
XFILLER_0_21_55 VGND VGND VPWR VPWR sky130_fd_sc_hd__fill_1
XFILLER_0_21_11 VGND VGND VPWR VPWR sky130_fd_sc_hd__decap_3
X_308_ clknet_2_1__leaf_clk _006_ net37 VGND VGND VPWR VPWR u_axi_slave.seed_reg\[6\]
+ sky130_fd_sc_hd__dfrtp_4
X_239_ _105_ VGND VGND VPWR VPWR _026_ sky130_fd_sc_hd__inv_2
XFILLER_0_1_87 VGND VGND VPWR VPWR sky130_fd_sc_hd__fill_2
XFILLER_0_1_65 VGND VGND VPWR VPWR sky130_fd_sc_hd__decap_3
XFILLER_0_1_43 VGND VGND VPWR VPWR sky130_fd_sc_hd__fill_1
XANTENNA__263__A u_axi_slave.lfsr_data\[3\] VGND VGND VPWR VPWR sky130_fd_sc_hd__diode_2
XANTENNA__213__C1 _076_ VGND VGND VPWR VPWR sky130_fd_sc_hd__diode_2
XTAP_TAPCELL_ROW_10_91 VGND VPWR sky130_fd_sc_hd__tapvpwrvgnd_1
XFILLER_0_21_135 VGND VGND VPWR VPWR sky130_fd_sc_hd__fill_2
XFILLER_0_21_113 VGND VGND VPWR VPWR sky130_fd_sc_hd__fill_2
XFILLER_0_21_102 VGND VGND VPWR VPWR sky130_fd_sc_hd__decap_8
XFILLER_0_16_44 VGND VGND VPWR VPWR sky130_fd_sc_hd__fill_2
XFILLER_0_16_33 VGND VGND VPWR VPWR sky130_fd_sc_hd__fill_1
XANTENNA_clkbuf_0_clk_A clk VGND VGND VPWR VPWR sky130_fd_sc_hd__diode_2
XFILLER_0_12_102 VGND VGND VPWR VPWR sky130_fd_sc_hd__decap_4
Xoutput24 net24 VGND VGND VPWR VPWR s_axi_awready sky130_fd_sc_hd__buf_4
XANTENNA__348__A net24 VGND VGND VPWR VPWR sky130_fd_sc_hd__diode_2
Xoutput35 net35 VGND VGND VPWR VPWR s_axi_wready sky130_fd_sc_hd__buf_4
XPHY_EDGE_ROW_19_Right_19 VGND VGND VPWR VPWR sky130_fd_sc_hd__decap_3
XANTENNA__258__A u_axi_slave.taps_reg\[2\] VGND VGND VPWR VPWR sky130_fd_sc_hd__diode_2
XFILLER_0_27_76 VGND VGND VPWR VPWR sky130_fd_sc_hd__fill_2
XFILLER_0_27_65 VGND VGND VPWR VPWR sky130_fd_sc_hd__fill_2
XFILLER_0_27_54 VGND VGND VPWR VPWR sky130_fd_sc_hd__fill_2
XPHY_EDGE_ROW_15_Left_43 VGND VGND VPWR VPWR sky130_fd_sc_hd__decap_3
XANTENNA__259__A2 _116_ VGND VGND VPWR VPWR sky130_fd_sc_hd__diode_2
XANTENNA__318__D _016_ VGND VGND VPWR VPWR sky130_fd_sc_hd__diode_2
XFILLER_0_4_121 VPWR VGND VPWR VGND sky130_ef_sc_hd__decap_12
XFILLER_0_4_176 VGND VGND VPWR VPWR sky130_fd_sc_hd__decap_6
XFILLER_0_7_42 VGND VGND VPWR VPWR sky130_fd_sc_hd__fill_2
XANTENNA__186__A1 net20 VGND VGND VPWR VPWR sky130_fd_sc_hd__diode_2
XFILLER_0_13_45 VGND VGND VPWR VPWR sky130_fd_sc_hd__fill_2
XFILLER_0_13_34 VGND VGND VPWR VPWR sky130_fd_sc_hd__decap_4
XFILLER_0_1_113 VGND VGND VPWR VPWR sky130_fd_sc_hd__fill_2
X_272_ u_axi_slave.seed_reg\[5\] _109_ _112_ u_axi_slave.ctrl_reg\[5\] _114_ VGND
+ VGND VPWR VPWR _133_ sky130_fd_sc_hd__a221o_2
XANTENNA__300__S _142_ VGND VGND VPWR VPWR sky130_fd_sc_hd__diode_2
XPHY_EDGE_ROW_0_Left_28 VGND VGND VPWR VPWR sky130_fd_sc_hd__decap_3
X_341_ clknet_2_2__leaf_clk _039_ net40 VGND VGND VPWR VPWR u_axi_slave.taps_reg\[3\]
+ sky130_fd_sc_hd__dfstp_2
XANTENNA__168__A1 net20 VGND VGND VPWR VPWR sky130_fd_sc_hd__diode_2
XFILLER_0_24_33 VGND VGND VPWR VPWR sky130_fd_sc_hd__fill_2
XANTENNA__275__SLEEP_B _111_ VGND VGND VPWR VPWR sky130_fd_sc_hd__diode_2
X_255_ u_axi_slave.lfsr_data\[1\] _111_ _109_ u_axi_slave.seed_reg\[1\] VGND VGND
+ VPWR VPWR _120_ sky130_fd_sc_hd__a22o_2
X_186_ u_axi_slave.ctrl_reg\[6\] net20 _058_ VGND VGND VPWR VPWR _065_ sky130_fd_sc_hd__mux2_1
XFILLER_0_10_46 VGND VGND VPWR VPWR sky130_fd_sc_hd__fill_2
X_324_ clknet_2_2__leaf_clk _022_ net40 VGND VGND VPWR VPWR u_axi_slave.lfsr_data\[4\]
+ sky130_fd_sc_hd__dfstp_4
XFILLER_0_27_163 VGND VGND VPWR VPWR sky130_fd_sc_hd__fill_1
XFILLER_0_27_141 VGND VGND VPWR VPWR sky130_fd_sc_hd__fill_2
XFILLER_0_19_55 VGND VGND VPWR VPWR sky130_fd_sc_hd__fill_1
XTAP_TAPCELL_ROW_0_61 VGND VPWR sky130_fd_sc_hd__tapvpwrvgnd_1
XFILLER_0_18_141 VGND VGND VPWR VPWR sky130_fd_sc_hd__fill_2
Xclkload1 clknet_2_1__leaf_clk VGND VGND VPWR VPWR clkload1/Y sky130_fd_sc_hd__clkinv_1
XPHY_EDGE_ROW_3_Left_31 VGND VGND VPWR VPWR sky130_fd_sc_hd__decap_3
XFILLER_0_24_177 VGND VGND VPWR VPWR sky130_fd_sc_hd__fill_2
X_307_ clknet_2_3__leaf_clk _005_ net39 VGND VGND VPWR VPWR u_axi_slave.seed_reg\[5\]
+ sky130_fd_sc_hd__dfrtp_4
X_169_ _055_ _169_/KAPWR VGND VGND VPWR VPWR _006_ sky130_fd_sc_hd__lpflow_clkbufkapwr_1
XANTENNA__298__A0 u_axi_slave.taps_reg\[6\] VGND VGND VPWR VPWR sky130_fd_sc_hd__diode_2
X_238_ net34 _103_ _104_ VGND VGND VPWR VPWR _105_ sky130_fd_sc_hd__o21ai_0
XANTENNA__222__B1 _094_ VGND VGND VPWR VPWR sky130_fd_sc_hd__diode_2
XFILLER_0_15_177 VGND VGND VPWR VPWR sky130_fd_sc_hd__fill_1
XFILLER_0_15_122 VGND VGND VPWR VPWR sky130_fd_sc_hd__decap_4
XFILLER_0_15_111 VGND VGND VPWR VPWR sky130_fd_sc_hd__fill_1
XFILLER_0_15_100 VGND VGND VPWR VPWR sky130_fd_sc_hd__fill_2
XFILLER_0_21_169 VGND VGND VPWR VPWR sky130_fd_sc_hd__fill_2
XFILLER_0_16_89 VPWR VGND VPWR VGND sky130_ef_sc_hd__decap_12
XANTENNA__204__B1 u_axi_slave.taps_reg\[7\] VGND VGND VPWR VPWR sky130_fd_sc_hd__diode_2
Xoutput25 net25 VGND VGND VPWR VPWR s_axi_bvalid sky130_fd_sc_hd__buf_4
XFILLER_0_27_22 VGND VGND VPWR VPWR sky130_fd_sc_hd__decap_4
XFILLER_0_4_133 VGND VGND VPWR VPWR sky130_fd_sc_hd__decap_4
XFILLER_0_4_144 VGND VGND VPWR VPWR sky130_fd_sc_hd__fill_2
XFILLER_0_7_54 VGND VGND VPWR VPWR sky130_fd_sc_hd__fill_2
XFILLER_0_13_57 VGND VGND VPWR VPWR sky130_fd_sc_hd__decap_8
XTAP_TAPCELL_ROW_14_101 VGND VPWR sky130_fd_sc_hd__tapvpwrvgnd_1
XFILLER_0_1_169 VGND VGND VPWR VPWR sky130_fd_sc_hd__fill_2
XFILLER_0_1_125 VGND VGND VPWR VPWR sky130_fd_sc_hd__decap_3
XANTENNA_input21_A s_axi_wdata[7] VGND VGND VPWR VPWR sky130_fd_sc_hd__diode_2
X_271_ u_axi_slave.taps_reg\[5\] _107_ _111_ u_axi_slave.lfsr_data\[5\] VGND VGND
+ VPWR VPWR _132_ sky130_fd_sc_hd__a22o_2
XFILLER_0_24_67 VGND VGND VPWR VPWR sky130_fd_sc_hd__fill_2
XFILLER_0_24_45 VPWR VGND VPWR VGND sky130_ef_sc_hd__decap_12
X_340_ clknet_2_3__leaf_clk _038_ net1 VGND VGND VPWR VPWR u_axi_slave.taps_reg\[2\]
+ sky130_fd_sc_hd__dfrtp_2
XANTENNA__244__SLEEP_B _109_ VGND VGND VPWR VPWR sky130_fd_sc_hd__diode_2
XFILLER_0_4_55 VPWR VGND VPWR VGND sky130_ef_sc_hd__decap_12
X_323_ clknet_2_1__leaf_clk _021_ net37 VGND VGND VPWR VPWR u_axi_slave.lfsr_data\[3\]
+ sky130_fd_sc_hd__dfstp_4
X_185_ _064_ _185_/KAPWR VGND VGND VPWR VPWR _013_ sky130_fd_sc_hd__lpflow_clkbufkapwr_1
XANTENNA__282__A net23 VGND VGND VPWR VPWR sky130_fd_sc_hd__diode_2
X_254_ _090_ _118_ _102_ VGND VGND VPWR VPWR _119_ sky130_fd_sc_hd__o21ai_0
XANTENNA__192__A _068_ VGND VGND VPWR VPWR sky130_fd_sc_hd__diode_2
XFILLER_0_19_89 VGND VGND VPWR VPWR sky130_fd_sc_hd__fill_2
XFILLER_0_10_58 VPWR VGND VPWR VGND sky130_ef_sc_hd__decap_12
XFILLER_0_18_153 VGND VGND VPWR VPWR sky130_fd_sc_hd__fill_1
Xclkload2 clknet_2_3__leaf_clk VGND VGND VPWR VPWR clkload2/X sky130_fd_sc_hd__clkbuf_4
XFILLER_0_24_189 VGND VGND VPWR VPWR sky130_fd_sc_hd__fill_1
XFILLER_0_24_145 VGND VGND VPWR VPWR sky130_fd_sc_hd__fill_2
XFILLER_0_21_57 VGND VGND VPWR VPWR sky130_fd_sc_hd__decap_6
X_306_ clknet_2_1__leaf_clk _004_ net37 VGND VGND VPWR VPWR u_axi_slave.seed_reg\[4\]
+ sky130_fd_sc_hd__dfstp_2
X_237_ net13 net34 VGND VGND VPWR VPWR _104_ sky130_fd_sc_hd__nand2_2
XANTENNA__298__A1 net20 VGND VGND VPWR VPWR sky130_fd_sc_hd__diode_2
X_168_ u_axi_slave.seed_reg\[6\] net20 _048_ VGND VGND VPWR VPWR _055_ sky130_fd_sc_hd__mux2_1
XANTENNA__222__B2 u_axi_slave.lfsr_data\[0\] VGND VGND VPWR VPWR sky130_fd_sc_hd__diode_2
XANTENNA__222__A1 _090_ VGND VGND VPWR VPWR sky130_fd_sc_hd__diode_2
XFILLER_0_1_23 VGND VGND VPWR VPWR sky130_fd_sc_hd__fill_2
XFILLER_0_1_12 VGND VGND VPWR VPWR sky130_fd_sc_hd__fill_2
XANTENNA__213__A1 _081_ VGND VGND VPWR VPWR sky130_fd_sc_hd__diode_2
XFILLER_0_16_79 VGND VGND VPWR VPWR sky130_fd_sc_hd__fill_2